*BJT Transfer Function (Small Signal)

Vs	Vcc	gnd DC 2.5
R1	Vcc	ammc 80
V3	ammc	collec  DC 0
VB	input	ammb DC 0.8
Vin	base	input DC 0 AC 0.01
.model QMOD1 npn
Q1	collec	base emitter QMOD1 VJE=0.8 VJS=0.8
C1 	collec	gnd 2pF
Vab	ammb	gnd DC 0
Vae	emitter gnd DC 0

.control
	TF	V(collector) Vin
	AC	LIN	10	100	5G
	PLOT	DB(collec/0.01)+3
	PLOT	MAG(collec/0.01)
	PLOT	MAG(collec)
.endc

.end
