*BJT Test1

V1 vdd gnd DC 2
R1 vdd cp 1k
C1 cp ammeter1 10u IC=0
V2 ammeter1 base DC 0
V3 vdd collector DC 0
.model QMOD1 npn
Q1 collector base emitter QMOD1
R2 emitter gnd 100

.control
TRAN 500m 500 uic
plot v(base)
plot i(V3) i(V2)
.endc
.end
