*BJT Transfer Function (Small Signal)

Vs	Vcc gnd DC 2.5
R1	Vcc ammeterc 80
V3	ammeterc collector  DC 0
VB	input ammeterb DC 0.8
Vin base input DC 0 AC 0.01
.model QMOD1 npn
Q1	collector base emitter QMOD1 VJE=0.8 VJS=0.8
C1 	collector gnd 2pF
Vab	ammeterb gnd DC 0
Vae	emitter gnd DC 0

.control
	TF		V(collector) Vin
	AC		LIN	10	100	5G
	PLOT	DB(collector/0.01)+3
	PLOT	MAG(collector/0.01)
.endc

.end
